LAMMPS (29 Oct 2020)
units		real
atom_style	full

pair_style	lj/cut/coul/cut 10.0
pair_modify	mix geometric

bond_style	zero
angle_style	zero

read_data	methdata.lmp
Reading data file ...
  orthogonal box = (-25.981333 -25.356000 -25.542999) to (25.102667 25.728000 25.541001)
  reading atoms ...
  3000 atoms
  scanning bonds ...
  scanning angles ...
  reading bonds ...
  2000 bonds
  reading angles ...
  1000 angles
Finding 1-2 1-3 1-4 neighbors ...
     2 = max # of 1-2 neighbors
     1 = max # of 1-3 neighbors
     1 = max # of 1-4 neighbors
     2 = max # of special neighbors

pair_coeff	1 1 0.2072 3.748 	#	CH3
pair_coeff	2 2 0.0210 1.580	#	H
pair_coeff	3 3 0.1554 3.192	#	O

bond_coeff 1 1.43
bond_coeff 2 0.945

angle_coeff	1 108.5

min_style   sd
minimize 1e-10 1e-10 100 100
  update every 1 steps, delay 0 steps, check yes
Step Temp E_pair E_mol TotEng Press
0            0   -17427.221            0   -17427.221   -3544.8041
Loop time of 0.397323 on 1 procs for 15 steps with 3000 atoms

Minimization stats:
  Stopping criterion = max force evaluations
  Energy initial, next-to-last, final =
  Force two-norm initial, final = 114.05111 651.79346
  Force max component initial, final = 2.2186487 15.393020
  Final line search alpha, max atom move = 7.7443729e-10 1.1920929e-08
  Iterations, force evaluations = 15 101

velocity	all create 300.0 2345

timestep	2.0

fix	stiff all shake 0.0001 20 0 b 1	2 a 1
       0 = # of size 2 clusters
       0 = # of size 3 clusters
       0 = # of size 4 clusters
    1000 = # of frozen angles
  find clusters CPU = 0.001 seconds

#fix	1 all nvt temp 300.0 300.0 $(100.0*dt)
fix     1 all npt temp 320.0 320.0 $(100.0*dt) iso 1.0 1.0 $(1000.0*dt)
fix     1 all npt temp 320.0 320.0 200 iso 1.0 1.0 $(1000.0*dt)
fix     1 all npt temp 320.0 320.0 200 iso 1.0 1.0 2000

thermo	1000
thermo_style	custom step time temp etotal pe ke ecoul evdwl lx vol press density enthalpy

dump TRAJ all custom 1000 npt_methanol_simulation.lammpstrj id mol type element xs ys zs
dump_modify TRAJ element CH3 H O

compute myRDF all rdf 50
fix 2 all ave/time 100 1 20000 c_myRDF[*] file methanol_simulation.rdf mode vector

run 750000
  update every 1 steps, delay 10 steps, check yes
Step Time Temp TotEng PotEng KinEng E_coul E_vdwl Lx Volume Press Density Enthalpy
15            0    450.07504   -89183.342   -91865.176    2681.8348   -90733.712   -1131.4641       51.084    133307.53   -16962.633   0.39912965   -122161.31
Averages over the last 376 of 752 rows, steps 376000 to 750015:
Temp TotEng PotEng KinEng E_coul E_vdwl Lx Volume Press Density Enthalpy
320.339 -8050.05 -9958.84 1908.79 -8456.28 -1502.55 40.4965 66413.7 36.5984 0.801173 -8015.34
Loop time of 5639.44 on 1 procs for 750000 steps with 3000 atoms

write_data npt_simulation_result.lmp
System init for write_data ...
